<?xml version="1.0" encoding="UTF-8"?>
<routes xmlns:xsi="http://www.w3.org/2001/XMLSchema-instance" xsi:noNamespaceSchemaLocation="http://sumo.dlr.de/xsd/routes_file.xsd">
    <vType id="car_0" vClass="truck" maxSpeed="13.89" accel="1.3" decel="4" color="1,1,1"
           carFollowModel="Krauss"                             
           minGap="2.5"                                     
           sigma="0.5"
           timeToTeleport="2000"
           timeToTeleportBidi="2000" /> 
		                                      
    <route id="r_0" edges="E0 E1 E2 E3 E4 E5 "/>

    <flow id="f_0" begin="0.00" route="r_0" end="3600.00" vehsPerHour="50" type="car_0"/>
</routes>