<?xml version="1.0" encoding="UTF-8"?>

<!-- generated on 2024-12-06 14:51:20 by Eclipse SUMO netedit Version 1.21.0
<neteditConfiguration xmlns:xsi="http://www.w3.org/2001/XMLSchema-instance" xsi:noNamespaceSchemaLocation="http://sumo.dlr.de/xsd/neteditConfiguration.xsd">

    <input>
        <sumo-net-file value="C:\sumo\project\one_way\one_way.net.xml"/>
    </input>

    <output>
        <output-file value="C:\sumo\project\one_way\one_way.net.xml"/>
    </output>

    <processing>
        <geometry.min-radius.fix.railways value="false"/>
        <geometry.max-grade.fix value="false"/>
        <offset.disable-normalization value="true"/>
        <lefthand value="0"/>
    </processing>

    <junctions>
        <no-turnarounds value="true"/>
        <junctions.corner-detail value="5"/>
        <junctions.limit-turn-speed value="5.50"/>
        <rectangular-lane-cut value="0"/>
    </junctions>

    <pedestrian>
        <walkingareas value="0"/>
    </pedestrian>

</neteditConfiguration>
-->

<net version="1.20" junctionCornerDetail="5" limitTurnSpeed="5.50" xmlns:xsi="http://www.w3.org/2001/XMLSchema-instance" xsi:noNamespaceSchemaLocation="http://sumo.dlr.de/xsd/net_file.xsd">

    <location netOffset="0.00,0.00" convBoundary="-150.00,0.00,4500.00,0.00" origBoundary="-10000000000.00,-10000000000.00,10000000000.00,10000000000.00" projParameter="!"/>

    <edge id=":J1_0" function="internal">
        <lane id=":J1_0_0" index="0" speed="13.89" length="1.60" shape="0.00,0.00 0.00,1.60"/>
    </edge>
    <edge id=":J1_1" function="internal">
        <lane id=":J1_1_0" index="0" speed="13.89" length="1.60" shape="0.00,-1.60 0.00,0.00"/>
    </edge>
    <edge id=":J2_0" function="internal">
        <lane id=":J2_0_0" index="0" speed="13.89" length="1.60" shape="4400.00,1.60 4400.00,0.00"/>
    </edge>
    <edge id=":J2_1" function="internal">
        <lane id=":J2_1_0" index="0" speed="13.89" length="1.60" shape="4400.00,0.00 4400.00,-1.60"/>
    </edge>
    <edge id=":J3_0" function="internal">
        <lane id=":J3_0_0" index="0" speed="3.65" length="4.67" shape="4500.00,-1.60 4501.20,-0.80 4501.60,0.00 4501.20,0.80 4500.00,1.60"/>
    </edge>

    <edge id="E0" from="J0" to="J1" priority="-1">
        <lane id="E0_0" index="0" speed="13.89" length="150.00" shape="-150.00,-1.60 0.00,-1.60"/>
    </edge>
    <edge id="E1" from="J1" to="J2" priority="-1" spreadType="center" bidi="E4">
        <lane id="E1_0" index="0" speed="13.89" length="4400.00" shape="0.00,0.00 4400.00,0.00"/>
    </edge>
    <edge id="E2" from="J2" to="J3" priority="-1">
        <lane id="E2_0" index="0" speed="13.89" length="100.00" shape="4400.00,-1.60 4500.00,-1.60"/>
    </edge>
    <edge id="E3" from="J3" to="J2" priority="-1">
        <lane id="E3_0" index="0" speed="13.89" length="100.00" shape="4500.00,1.60 4400.00,1.60"/>
    </edge>
    <edge id="E4" from="J2" to="J1" priority="-1" spreadType="center" bidi="E1">
        <lane id="E4_0" index="0" speed="13.89" length="4400.00" shape="4400.00,0.00 0.00,0.00"/>
    </edge>
    <edge id="E5" from="J1" to="J0" priority="-1">
        <lane id="E5_0" index="0" speed="13.89" length="150.00" shape="0.00,1.60 -150.00,1.60"/>
    </edge>

    <tlLogic id="J1" type="static" programID="0" offset="0">
        <phase duration="20" state="GG"/>
        <phase duration="365"  state="Gr"/> 

        <phase duration="385" state="Gr"/>

        <phase duration="20" state="GG"/>
        <phase duration="365"  state="Gr"/> 

        <phase duration="385"  state="Gr"/>
    </tlLogic>
    <tlLogic id="J2" type="static" programID="0" offset="0">
        <phase duration="385" state="rG"/> 

        <phase duration="20"  state="GG"/>
        <phase duration="365"  state="rG"/>

        <phase duration="385" state="rG"/>

        <phase duration="20"  state="GG"/>
        <phase duration="365"  state="rG"/>
    </tlLogic>

    <junction id="J0" type="dead_end" x="-150.00" y="0.00" incLanes="E5_0" intLanes="" shape="-150.00,0.00 -150.00,3.20 -150.00,0.00"/>
    <junction id="J1" type="traffic_light" x="0.00" y="0.00" incLanes="E4_0 E0_0" intLanes=":J1_0_0 :J1_1_0" shape="0.00,1.60 0.00,-3.20 0.00,3.20">
        <request index="0" response="00" foes="10" cont="0"/>
        <request index="1" response="01" foes="01" cont="0"/>
    </junction>
    <junction id="J2" type="traffic_light" x="4400.00" y="0.00" incLanes="E3_0 E1_0" intLanes=":J2_0_0 :J2_1_0" shape="4400.00,3.20 4400.00,-1.60 4400.00,1.60">
        <request index="0" response="10" foes="10" cont="0"/>
        <request index="1" response="00" foes="01" cont="0"/>
    </junction>
    <junction id="J3" type="priority" x="4500.00" y="0.00" incLanes="E2_0" intLanes=":J3_0_0" shape="4500.00,0.00 4500.00,-3.20 4500.00,0.00">
        <request index="0" response="0" foes="0" cont="0"/>
    </junction>

    <connection from="E0" to="E1" fromLane="0" toLane="0" via=":J1_1_0" tl="J1" linkIndex="1" dir="s" state="o"/>
    <connection from="E1" to="E2" fromLane="0" toLane="0" keepClear="0" via=":J2_1_0" tl="J2" linkIndex="1" dir="s" state="O"/>
    <connection from="E2" to="E3" fromLane="0" toLane="0" via=":J3_0_0" dir="t" state="M"/>
    <connection from="E3" to="E4" fromLane="0" toLane="0" via=":J2_0_0" tl="J2" linkIndex="0" dir="s" state="o"/>
    <connection from="E4" to="E5" fromLane="0" toLane="0" keepClear="0" via=":J1_0_0" tl="J1" linkIndex="0" dir="s" state="O"/>

    <connection from=":J1_0" to="E5" fromLane="0" toLane="0" dir="s" state="M"/>
    <connection from=":J1_1" to="E1" fromLane="0" toLane="0" dir="s" state="M"/>
    <connection from=":J2_0" to="E4" fromLane="0" toLane="0" dir="s" state="M"/>
    <connection from=":J2_1" to="E2" fromLane="0" toLane="0" dir="s" state="M"/>
    <connection from=":J3_0" to="E3" fromLane="0" toLane="0" dir="t" state="M"/>

</net>
