<?xml version="1.0" encoding="UTF-8"?>

<!-- generated on 2024-10-19 20:12:59 by Eclipse SUMO netedit Version 1.20.0
<configuration xmlns:xsi="http://www.w3.org/2001/XMLSchema-instance" xsi:noNamespaceSchemaLocation="http://sumo.dlr.de/xsd/neteditConfiguration.xsd">

    <input>
        <sumocfg-file value=".\.\three_points.sumocfg"/>
        <additional-files value=""/>
        <route-files value=".\.\three_points.rou.xml"/>
        <sumo-net-file value=".\.\three_points.net.xml"/>
    </input>

    <output>
        <output-file value=".\.\three_points.net.xml"/>
    </output>

    <processing>
        <geometry.min-radius.fix.railways value="false"/>
        <geometry.max-grade.fix value="false"/>
        <offset.disable-normalization value="true"/>
        <lefthand value="0"/>
    </processing>

    <junctions>
        <no-turnarounds value="true"/>
        <junctions.corner-detail value="5"/>
        <junctions.limit-turn-speed value="5.50"/>
        <rectangular-lane-cut value="0"/>
    </junctions>

    <pedestrian>
        <walkingareas value="0"/>
    </pedestrian>

    <netedit>
        <ignore.routeelements value="false"/>
    </netedit>

</configuration>
-->

<net version="1.20" junctionCornerDetail="5" limitTurnSpeed="5.50" xmlns:xsi="http://www.w3.org/2001/XMLSchema-instance" xsi:noNamespaceSchemaLocation="http://sumo.dlr.de/xsd/net_file.xsd">

    <location netOffset="0.00,0.00" convBoundary="-90.20,-34.64,1495.98,105.52" origBoundary="-10000000000.00,-10000000000.00,10000000000.00,10000000000.00" projParameter="!"/>

    <edge id=":J10_0" function="internal">
        <lane id=":J10_0_0" index="0" speed="4.44" length="1.02" shape="820.79,-9.36 820.51,-9.26 820.30,-9.23 820.09,-9.24 819.80,-9.32"/>
    </edge>
    <edge id=":J11_0" function="internal">
        <lane id=":J11_0_0" index="0" speed="13.89" length="0.30" shape="800.58,-14.64 800.50,-14.66 800.44,-14.68 800.38,-14.70 800.31,-14.74"/>
    </edge>
    <edge id=":J12_0" function="internal">
        <lane id=":J12_0_0" index="0" speed="4.13" length="1.37" shape="253.87,-26.40 253.56,-26.24 253.24,-26.15 252.90,-26.14 252.56,-26.20"/>
    </edge>
    <edge id=":J13_0" function="internal">
        <lane id=":J13_0_0" index="0" speed="13.89" length="0.24" shape="236.90,-30.72 236.83,-30.74 236.78,-30.76 236.74,-30.78 236.68,-30.80"/>
    </edge>
    <edge id=":J14_0" function="internal">
        <lane id=":J14_0_0" index="0" speed="4.35" length="1.10" shape="42.24,4.73 41.98,4.92 41.78,5.03 41.55,5.07 41.23,5.07"/>
    </edge>
    <edge id=":J2_0" function="internal">
        <lane id=":J2_0_0" index="0" speed="13.89" length="0.32" shape="41.25,1.76 41.35,1.77 41.41,1.76 41.47,1.76 41.57,1.74"/>
    </edge>
    <edge id=":J3_0" function="internal">
        <lane id=":J3_0_0" index="0" speed="13.89" length="0.73" shape="237.16,-33.82 237.38,-33.86 237.53,-33.87 237.68,-33.85 237.89,-33.79"/>
    </edge>
    <edge id=":J4_0" function="internal">
        <lane id=":J4_0_0" index="0" speed="13.89" length="0.41" shape="253.44,-29.38 253.56,-29.35 253.64,-29.33 253.72,-29.32 253.84,-29.32"/>
    </edge>
    <edge id=":J5_0" function="internal">
        <lane id=":J5_0_0" index="0" speed="13.89" length="0.39" shape="800.90,-17.65 801.02,-17.65 801.10,-17.64 801.17,-17.62 801.29,-17.60"/>
    </edge>
    <edge id=":J6_0" function="internal">
        <lane id=":J6_0_0" index="0" speed="13.89" length="0.29" shape="820.52,-12.43 820.81,-12.35"/>
    </edge>
    <edge id=":J7_0" function="internal">
        <lane id=":J7_0_0" index="0" speed="13.89" length="0.39" shape="1264.87,101.84 1264.98,101.87 1265.06,101.89 1265.14,101.89 1265.25,101.89"/>
    </edge>
    <edge id=":J8_0" function="internal">
        <lane id=":J8_0_0" index="0" speed="3.65" length="4.67" shape="1495.99,103.92 1497.19,104.73 1497.58,105.53 1497.17,106.33 1495.97,107.12"/>
    </edge>
    <edge id=":J9_0" function="internal">
        <lane id=":J9_0_0" index="0" speed="4.07" length="1.52" shape="1264.73,105.15 1264.34,105.10 1263.99,104.98 1263.69,104.77 1263.43,104.47"/>
    </edge>

    <edge id="E0" from="J1" to="J2" priority="-1">
        <lane id="E0_0" index="0" speed="13.89" length="131.44" shape="-90.17,-0.55 41.25,1.76"/>
    </edge>
    <edge id="E1" from="J2" to="J3" priority="-1">
        <lane id="E1_0" index="0" speed="13.89" length="198.80" shape="41.57,1.74 237.16,-33.82"/>
    </edge>
    <edge id="E10" from="J11" to="J12" priority="-1" shape="801.01,-16.18 795.26,-19.00 258.02,-31.00 253.00,-27.74">
        <lane id="E10_0" index="0" speed="13.89" length="548.07" shape="800.31,-14.74 794.87,-17.41 258.48,-29.39 253.87,-26.40"/>
    </edge>
    <edge id="E11" from="J12" to="J13" priority="-1">
        <lane id="E11_0" index="0" speed="13.89" length="16.30" shape="252.56,-26.20 236.90,-30.72"/>
    </edge>
    <edge id="E12" from="J13" to="J14" priority="-1" shape="237.34,-32.26 232.13,-34.64 46.08,-0.28 41.26,3.47">
        <lane id="E12_0" index="0" speed="13.89" length="199.24" shape="236.68,-30.80 231.92,-32.97 46.75,1.22 42.24,4.73"/>
    </edge>
    <edge id="E13" from="J14" to="J1" priority="-1">
        <lane id="E13_0" index="0" speed="13.89" length="131.48" shape="41.23,5.07 -90.23,2.65"/>
    </edge>
    <edge id="E2" from="J3" to="J4" priority="-1">
        <lane id="E2_0" index="0" speed="13.89" length="16.17" shape="237.89,-33.79 253.44,-29.38"/>
    </edge>
    <edge id="E3" from="J4" to="J5" priority="-1">
        <lane id="E3_0" index="0" speed="13.89" length="547.18" shape="253.84,-29.32 800.90,-17.65"/>
    </edge>
    <edge id="E4" from="J5" to="J6" priority="-1">
        <lane id="E4_0" index="0" speed="13.89" length="19.92" shape="801.29,-17.60 820.52,-12.43"/>
    </edge>
    <edge id="E5" from="J6" to="J7" priority="-1">
        <lane id="E5_0" index="0" speed="13.89" length="458.51" shape="820.81,-12.35 1264.87,101.84"/>
    </edge>
    <edge id="E6" from="J7" to="J8" priority="-1">
        <lane id="E6_0" index="0" speed="13.89" length="230.75" shape="1265.25,101.89 1495.99,103.92"/>
    </edge>
    <edge id="E7" from="J8" to="J9" priority="-1">
        <lane id="E7_0" index="0" speed="13.89" length="231.25" shape="1495.97,107.12 1264.73,105.15"/>
    </edge>
    <edge id="E8" from="J9" to="J10" priority="-1" shape="1264.74,103.55 1261.91,99.53 825.35,-12.77 820.23,-10.86">
        <lane id="E8_0" index="0" speed="13.89" length="458.97" shape="1263.43,104.47 1260.94,100.93 825.44,-11.10 820.79,-9.36"/>
    </edge>
    <edge id="E9" from="J10" to="J11" priority="-1">
        <lane id="E9_0" index="0" speed="13.89" length="19.94" shape="819.80,-9.32 800.58,-14.64"/>
    </edge>

    <tlLogic id="section1_east_to_west" type="static" programID="0" offset="0">
        <phase duration="182" state="r"/>
        <phase duration="38" state="G"/>
    </tlLogic>
    <tlLogic id="section1_west_to_east" type="static" programID="0" offset="0">
        <phase duration="38" state="G"/>
        <phase duration="182" state="r"/>
    </tlLogic>
    <tlLogic id="section2_east_to_west" type="static" programID="0" offset="36">
        <phase duration="182" state="r"/>
        <phase duration="38" state="G"/>
    </tlLogic>
    <tlLogic id="section2_west_to_east" type="static" programID="0" offset="36">
        <phase duration="38" state="G"/>
        <phase duration="182" state="r"/>
    </tlLogic>
    <tlLogic id="section3_east_to_west" type="static" programID="0" offset="72">
        <phase duration="182" state="r"/>
        <phase duration="38" state="G"/>
    </tlLogic>
    <tlLogic id="section3_west_to_east" type="static" programID="0" offset="72">
        <phase duration="38" state="G"/>
        <phase duration="182" state="r"/>
    </tlLogic>

    <junction id="J1" type="dead_end" x="-90.20" y="1.05" incLanes="E13_0" intLanes="" shape="-90.20,1.05 -90.14,-2.15 -90.26,4.25"/>
    <junction id="J10" type="priority" x="820.23" y="-10.86" incLanes="E8_0" intLanes=":J10_0_0" shape="821.35,-7.86 820.23,-10.86 819.38,-7.78 820.10,-7.60 820.37,-7.59 820.64,-7.63 820.95,-7.72">
        <request index="0" response="0" foes="0" cont="0"/>
    </junction>
    <junction id="J11" type="traffic_light" x="801.01" y="-16.18" incLanes="E9_0" intLanes=":J11_0_0" shape="800.16,-13.10 801.01,-16.18 799.60,-13.31 799.80,-13.21 799.87,-13.18 799.94,-13.16">
        <request index="0" response="0" foes="0" cont="0"/>
    </junction>
    <junction id="J12" type="priority" x="253.00" y="-27.74" incLanes="E10_0" intLanes=":J12_0_0" shape="254.74,-25.06 253.00,-27.74 252.11,-24.67 253.03,-24.53 253.47,-24.56 253.91,-24.66 254.33,-24.82">
        <request index="0" response="0" foes="0" cont="0"/>
    </junction>
    <junction id="J13" type="traffic_light" x="237.34" y="-32.26" incLanes="E11_0" intLanes=":J13_0_0" shape="236.45,-29.19 237.34,-32.26 236.01,-29.35 236.17,-29.28 236.23,-29.26 236.28,-29.24">
        <request index="0" response="0" foes="0" cont="0"/>
    </junction>
    <junction id="J14" type="priority" x="41.26" y="3.47" incLanes="E12_0" intLanes=":J14_0_0" shape="43.22,6.00 41.26,3.47 41.20,6.67 42.01,6.65 42.30,6.59 42.56,6.47 42.86,6.27">
        <request index="0" response="0" foes="0" cont="0"/>
    </junction>
    <junction id="J2" type="traffic_light" x="41.54" y="3.37" incLanes="E0_0" intLanes=":J2_0_0" shape="41.85,3.31 41.28,0.16 41.22,3.36 41.46,3.37 41.54,3.36 41.62,3.35 41.72,3.34">
        <request index="0" response="0" foes="0" cont="0"/>
    </junction>
    <junction id="J3" type="traffic_light" x="237.45" y="-32.25" incLanes="E1_0" intLanes=":J3_0_0" shape="237.45,-32.25 238.32,-35.33 237.80,-35.46 237.61,-35.49 237.41,-35.48 237.18,-35.45 236.88,-35.40">
        <request index="0" response="0" foes="0" cont="0"/>
    </junction>
    <junction id="J4" type="traffic_light" x="253.40" y="-27.73" incLanes="E2_0" intLanes=":J4_0_0" shape="253.81,-27.72 253.88,-30.92 253.01,-27.84 253.30,-27.76 253.40,-27.74 253.51,-27.73 253.64,-27.73">
        <request index="0" response="0" foes="0" cont="0"/>
    </junction>
    <junction id="J5" type="priority" x="800.87" y="-16.05" incLanes="E3_0" intLanes=":J5_0_0" shape="800.87,-16.05 801.70,-19.14 801.42,-19.21 801.32,-19.23 801.22,-19.24 801.10,-19.25 800.94,-19.25">
        <request index="0" response="0" foes="0" cont="0"/>
    </junction>
    <junction id="J6" type="traffic_light" x="820.26" y="-10.84" incLanes="E4_0" intLanes=":J6_0_0" shape="820.41,-10.80 821.21,-13.90 820.94,-13.97 820.11,-10.88">
        <request index="0" response="0" foes="0" cont="0"/>
    </junction>
    <junction id="J7" type="priority" x="1264.85" y="103.49" incLanes="E5_0" intLanes=":J7_0_0" shape="1265.24,103.49 1265.27,100.29 1264.47,103.39 1264.75,103.46 1264.85,103.48 1264.95,103.49 1265.08,103.49">
        <request index="0" response="0" foes="0" cont="0"/>
    </junction>
    <junction id="J8" type="priority" x="1495.98" y="105.52" incLanes="E6_0" intLanes=":J8_0_0" shape="1495.98,105.52 1496.01,102.32 1495.98,105.52">
        <request index="0" response="0" foes="0" cont="0"/>
    </junction>
    <junction id="J9" type="traffic_light" x="1264.74" y="103.55" incLanes="E7_0" intLanes=":J9_0_0" shape="1264.71,106.75 1264.74,103.55 1262.12,105.39 1262.83,106.14 1263.24,106.40 1263.69,106.59 1264.18,106.71">
        <request index="0" response="0" foes="0" cont="0"/>
    </junction>

    <connection from="E0" to="E1" fromLane="0" toLane="0" via=":J2_0_0" tl="section1_west_to_east" linkIndex="0" dir="s" state="O"/>
    <connection from="E1" to="E2" fromLane="0" toLane="0" uncontrolled="1" via=":J3_0_0" dir="s" state="M"/>
    <connection from="E10" to="E11" fromLane="0" toLane="0" via=":J12_0_0" dir="l" state="M"/>
    <connection from="E11" to="E12" fromLane="0" toLane="0" via=":J13_0_0" tl="section1_east_to_west" linkIndex="0" dir="s" state="O"/>
    <connection from="E12" to="E13" fromLane="0" toLane="0" via=":J14_0_0" dir="s" state="M"/>
    <connection from="E2" to="E3" fromLane="0" toLane="0" via=":J4_0_0" tl="section2_west_to_east" linkIndex="0" dir="s" state="O"/>
    <connection from="E3" to="E4" fromLane="0" toLane="0" via=":J5_0_0" dir="s" state="M"/>
    <connection from="E4" to="E5" fromLane="0" toLane="0" via=":J6_0_0" tl="section3_west_to_east" linkIndex="0" dir="s" state="O"/>
    <connection from="E5" to="E6" fromLane="0" toLane="0" via=":J7_0_0" dir="s" state="M"/>
    <connection from="E6" to="E7" fromLane="0" toLane="0" via=":J8_0_0" dir="t" state="M"/>
    <connection from="E7" to="E8" fromLane="0" toLane="0" via=":J9_0_0" tl="section3_east_to_west" linkIndex="0" dir="l" state="O"/>
    <connection from="E8" to="E9" fromLane="0" toLane="0" via=":J10_0_0" dir="s" state="M"/>
    <connection from="E9" to="E10" fromLane="0" toLane="0" via=":J11_0_0" tl="section2_east_to_west" linkIndex="0" dir="s" state="O"/>

    <connection from=":J10_0" to="E9" fromLane="0" toLane="0" dir="s" state="M"/>
    <connection from=":J11_0" to="E10" fromLane="0" toLane="0" dir="s" state="M"/>
    <connection from=":J12_0" to="E11" fromLane="0" toLane="0" dir="l" state="M"/>
    <connection from=":J13_0" to="E12" fromLane="0" toLane="0" dir="s" state="M"/>
    <connection from=":J14_0" to="E13" fromLane="0" toLane="0" dir="s" state="M"/>
    <connection from=":J2_0" to="E1" fromLane="0" toLane="0" dir="s" state="M"/>
    <connection from=":J3_0" to="E2" fromLane="0" toLane="0" dir="s" state="M"/>
    <connection from=":J4_0" to="E3" fromLane="0" toLane="0" dir="s" state="M"/>
    <connection from=":J5_0" to="E4" fromLane="0" toLane="0" dir="s" state="M"/>
    <connection from=":J6_0" to="E5" fromLane="0" toLane="0" dir="s" state="M"/>
    <connection from=":J7_0" to="E6" fromLane="0" toLane="0" dir="s" state="M"/>
    <connection from=":J8_0" to="E7" fromLane="0" toLane="0" dir="t" state="M"/>
    <connection from=":J9_0" to="E8" fromLane="0" toLane="0" dir="l" state="M"/>

</net>
