<?xml version="1.0" encoding="UTF-8"?>

<!-- generated on 2024-10-08 18:41:35 by Eclipse SUMO sumo Version 1.20.0
-->

<configuration xmlns:xsi="http://www.w3.org/2001/XMLSchema-instance" xsi:noNamespaceSchemaLocation="http://sumo.dlr.de/xsd/sumoConfiguration.xsd">

    <input>
        <net-file value="three_points.net.xml"/>
        <route-files value="three_points.rou.xml"/>
    </input>

</configuration>
